LTspice 24.0.12 for Windows
Circuit: * C:\Users\simon\Documents\GitHub\ERB-BSPD\Ltspice\LTC6994 500ms delay circuit\LTC6994 500ms delay circuit.asc
Start Time: Tue May 14 15:01:07 2024
solver = Normal
Maximum thread count: 20
tnom = 27
temp = 27
method = modified trap
Direct Newton iteration failed to find .op point.  (Use ".option noopiter" to skip.)
Starting Gmin stepping
Gmin = 10
Gmin = 1.07374
Gmin = 0.115292
Gmin = 0.0123794
Gmin = 0.00132923
Gmin = 0.000142725
vernier = 0.5
vernier = 0.25
vernier = 0.125
vernier = 0.0625
Gmin = 0.000124915
vernier = 0.03125
vernier = 0.015625
Gmin = 0.000121554
vernier = 0.0208333
vernier = 0.0277778
Gmin = 0.000114607
vernier = 0.037037
vernier = 0.0493827
Gmin = 0.000104358
vernier = 0.0658435
Gmin = 9.00876e-05
vernier = 0.0877914
vernier = 0.117055
Gmin = 7.0467e-05
vernier = 0.156073
vernier = 0.208098
Gmin = 4.77685e-05
vernier = 0.277464
Gmin = 2.60783e-05
vernier = 0.369952
vernier = 0.493269
Gmin = 9.6332e-06
vernier = 0.657691
vernier = 0.876922
Gmin = 2.0603e-06
vernier = 1
Gmin = 2.44414e-07
Gmin = 2.62438e-08
Gmin = 2.8179e-09
Gmin = 3.0257e-10
Gmin = 3.24882e-11
Gmin = 3.4884e-12
Gmin = 3.74564e-13
Gmin = 0
Gmin stepping succeeded in finding the operating point.

Changing Tseed to 1e-08
Changing Tseed to 1e-10
Changing Tseed to 1e-07
Changing Tseed to 1e-11
Changing Tseed to 1e-06
Changing Tseed to 1e-12
Total elapsed time: 0.086 seconds.

