LTspice 24.0.9 for Windows
Circuit: * C:\Users\fedec\Documents\GitHub\Bspd\ERB-BSPD\Ltspice\bspd.asc
Start Time: Mon Mar 18 17:16:31 2024
