LTspice 24.0.9 for Windows
Circuit: * C:\Users\fedec\Documents\GitHub\Bspd\ERB-BSPD\Ltspice\bspdGenerico.asc
Start Time: Tue Mar 26 18:08:26 2024
