LTspice 24.0.12 for Windows
Circuit: * C:\Users\simon\Documents\GitHub\ERB-BSPD\Ltspice\Draft7.asc
Start Time: Thu May 16 02:29:29 2024
solver = Normal
Maximum thread count: 20
tnom = 27
temp = 27
method = modified trap
Limiting rise time of source v6 to 1.2
Limiting fall time of source v6 to 1.2
Limiting rise time of source v7 to 1.2
Limiting fall time of source v7 to 1.2
WARNING: Less than two connections to node n015.  This node is used by v4.
WARNING: Less than two connections to node n020.  This node is used by r6.
Direct Newton iteration failed to find .op point.  (Use ".option noopiter" to skip.)
Starting Gmin stepping
Gmin = 10
Gmin = 1.07374
Gmin = 0.115292
Gmin = 0.0123794
Gmin = 0.00132923
Gmin = 0.000142725
vernier = 0.5
vernier = 0.25
vernier = 0.125
vernier = 0.0625
Gmin = 0.000124915
vernier = 0.03125
vernier = 0.015625
Gmin = 0.000121554
vernier = 0.0208333
vernier = 0.0277778
Gmin = 0.000114607
vernier = 0.037037
vernier = 0.0493827
Gmin = 0.000104358
vernier = 0.0658435
Gmin = 9.00876e-05
vernier = 0.0877914
vernier = 0.117055
Gmin = 7.0467e-05
vernier = 0.156073
vernier = 0.208098
Gmin = 4.77685e-05
vernier = 0.277464
Gmin = 2.60783e-05
vernier = 0.369952
vernier = 0.493269
Gmin = 9.6332e-06
vernier = 0.657691
vernier = 0.876922
Gmin = 2.0603e-06
vernier = 1
vernier = 0.5
Gmin = 4.71478e-07
vernier = 0.666667
vernier = 0.888888
Gmin = 1.07442e-07
vernier = 0.444444
vernier = 0.592592
Gmin = 4.46215e-08
vernier = 0.790123
vernier = 1
Gmin = 7.34529e-09
vernier = 0.5
vernier = 0.25
vernier = 0.125
Gmin = 5.20046e-09
vernier = 0.0625
vernier = 0.03125
vernier = 0.015625
vernier = 0.0078125
Gmin = 5.24967e-09
vernier = 0.00390625
vernier = 0.00195312
Gmin = 5.22411e-09
vernier = 0.000976562
vernier = 0.00130208
Gmin = 5.21095e-09
vernier = 0.000651042
vernier = 0.000868055
vernier = 0.000434028
Gmin = 5.20671e-09
Gmin = 0
Gmin stepping succeeded in finding the operating point.

Changing Tseed to 1e-08
Changing Tseed to 1e-10
Changing Tseed to 1e-07
Changing Tseed to 1e-11
Changing Tseed to 1e-06
Changing Tseed to 1e-12
Total elapsed time: 0.423 seconds.

