LTspice 24.0.9 for Windows
Circuit: * C:\Users\fedec\Documents\GitHub\Bspd\ERB-BSPD\Ltspice\Draft6.asc
Start Time: Wed May 15 21:57:39 2024
Warning: Multiple definitions of model "2scr375p" Type: BJT
Warning: Multiple definitions of model "bc857b" Type: BJT
Warning: Multiple definitions of model "bc847c" Type: BJT
Warning: Multiple definitions of model "bc847b" Type: BJT
lvms7: both pins shorted together -- ignoring.
d1: both pins shorted together -- ignoring.
lvms8: both pins shorted together -- ignoring.
Error on line 27 : v3 n004 0 v
	 Unknown parameter "v"
solver = Normal
Maximum thread count: 8
tnom = 27
temp = 27
method = modified trap
Limiting rise time of source v6 to 1.2
Limiting fall time of source v6 to 1.2
Limiting rise time of source v7 to 1.2
Limiting fall time of source v7 to 1.2
lvms3: Missing value, assumed 0V @ DC
v3: Missing value, assumed 0V @ DC
Direct Newton iteration failed to find .op point.  (Use ".option noopiter" to skip.)
Starting Gmin stepping
Gmin = 10
Gmin = 1.07374
vernier = 0.5
vernier = 0.25
vernier = 0.125
vernier = 0.0625
Gmin = 0.995033
vernier = 0.03125
vernier = 0.015625
vernier = 0.0078125
vernier = 0.00390625
Gmin = 0.999816
vernier = 0.00195312
vernier = 0.000976562
vernier = 0.000488281
Gmin = 0
Gmin stepping succeeded in finding the operating point.

Total elapsed time: 0.599 seconds.

