LTspice 24.0.9 for Windows
Circuit: * C:\Users\fedec\Documents\GitHub\Bspd\ERB-BSPD\Ltspice\Draft3.asc
Start Time: Wed Apr 10 13:01:47 2024
