LTspice 24.0.9 for Windows
Circuit: * C:\Users\fedec\Documents\GitHub\Bspd\ERB-BSPD\Ltspice\Draft5.asc
Start Time: Mon Apr 22 12:41:32 2024
solver = Normal
Maximum thread count: 8
tnom = 27
temp = 27
method = modified trap
.OP point found by inspection.
Total elapsed time: 0.484 seconds.

